64
 
H 0 0 0 0 1
H 1 0 0 0 1
H 2 0 0 1 1
H 3 0 0 1 1
H 4 0 0 2 1
H 5 0 0 2 1
H 6 0 0 3 1
H 7 0 0 3 1
H 0 1 0 0 1
H 1 1 0 0 1
H 2 1 0 1 1
H 3 1 0 1 1
H 4 1 0 2 1
H 5 1 0 2 1
H 6 1 0 3 1
H 7 1 0 3 1
H 0 2 0 4 1
H 1 2 0 4 1
H 2 2 0 5 1
H 3 2 0 5 1
H 4 2 0 6 1
H 5 2 0 6 1
H 6 2 0 7 1
H 7 2 0 7 1
H 0 3 0 4 1
H 1 3 0 4 1
H 2 3 0 5 1
H 3 3 0 5 1
H 4 3 0 6 1
H 5 3 0 6 1
H 6 3 0 7 1
H 7 3 0 7 1
H 0 4 0 8 1
H 1 4 0 8 1
H 2 4 0 9 1
H 3 4 0 9 1
H 4 4 0 10 1
H 5 4 0 10 1
H 6 4 0 11 1
H 7 4 0 11 1
H 0 5 0 8 1
H 1 5 0 8 1
H 2 5 0 9 1
H 3 5 0 9 1
H 4 5 0 10 1
H 5 5 0 10 1
H 6 5 0 11 1
H 7 5 0 11 1
H 0 6 0 12 1
H 1 6 0 12 1
H 2 6 0 13 1
H 3 6 0 13 1
H 4 6 0 14 1
H 5 6 0 14 1
H 6 6 0 15 1
H 7 6 0 15 1
H 0 7 0 12 1
H 1 7 0 12 1
H 2 7 0 13 1
H 3 7 0 13 1
H 4 7 0 14 1
H 5 7 0 14 1
H 6 7 0 15 1
H 7 7 0 15 1
64
 
H 0 0 0 0 1
H 1 0 0 0 1
H 2 0 0 1 1
H 3 0 0 1 1
H 4 0 0 2 1
H 5 0 0 2 1
H 6 0 0 3 1
H 7 0 0 3 1
H 0 1 0 0 1
H 1 1 0 0 1
H 2 1 0 1 1
H 3 1 0 1 1
H 4 1 0 2 1
H 5 1 0 2 1
H 6 1 0 3 1
H 7 1 0 3 1
H 0 2 0 4 1
H 1 2 0 4 1
H 2 2 0 5 1
H 3 2 0 5 1
H 4 2 0 6 1
H 5 2 0 6 1
H 6 2 0 7 1
H 7 2 0 7 1
H 0 3 0 4 1
H 1 3 0 4 1
H 2 3 0 5 1
H 3 3 0 5 1
H 4 3 0 6 1
H 5 3 0 6 1
H 6 3 0 7 1
H 7 3 0 7 1
H 0 4 0 8 1
H 1 4 0 8 1
H 2 4 0 9 1
H 3 4 0 9 1
H 4 4 0 10 1
H 5 4 0 10 1
H 6 4 0 11 1
H 7 4 0 11 1
H 0 5 0 8 1
H 1 5 0 8 1
H 2 5 0 9 1
H 3 5 0 9 1
H 4 5 0 10 1
H 5 5 0 10 1
H 6 5 0 11 1
H 7 5 0 11 1
H 0 6 0 12 1
H 1 6 0 12 1
H 2 6 0 13 1
H 3 6 0 13 1
H 4 6 0 14 1
H 5 6 0 14 1
H 6 6 0 15 1
H 7 6 0 15 1
H 0 7 0 12 1
H 1 7 0 12 1
H 2 7 0 13 1
H 3 7 0 13 1
H 4 7 0 14 1
H 5 7 0 14 1
H 6 7 0 15 1
H 7 7 0 15 1
64
 
H 0 0 0 0 1
H 1 0 0 0 -1
H 2 0 0 1 1
H 3 0 0 1 -1
H 4 0 0 2 1
H 5 0 0 2 -1
H 6 0 0 3 1
H 7 0 0 3 -1
H 0 1 0 0 -1
H 1 1 0 0 1
H 2 1 0 1 -1
H 3 1 0 1 1
H 4 1 0 2 -1
H 5 1 0 2 1
H 6 1 0 3 -1
H 7 1 0 3 1
H 0 2 0 4 1
H 1 2 0 4 -1
H 2 2 0 5 1
H 3 2 0 5 -1
H 4 2 0 6 1
H 5 2 0 6 -1
H 6 2 0 7 1
H 7 2 0 7 -1
H 0 3 0 4 -1
H 1 3 0 4 1
H 2 3 0 5 -1
H 3 3 0 5 1
H 4 3 0 6 -1
H 5 3 0 6 1
H 6 3 0 7 -1
H 7 3 0 7 1
H 0 4 0 8 1
H 1 4 0 8 -1
H 2 4 0 9 1
H 3 4 0 9 -1
H 4 4 0 10 1
H 5 4 0 10 -1
H 6 4 0 11 1
H 7 4 0 11 -1
H 0 5 0 8 -1
H 1 5 0 8 1
H 2 5 0 9 -1
H 3 5 0 9 1
H 4 5 0 10 -1
H 5 5 0 10 1
H 6 5 0 11 -1
H 7 5 0 11 1
H 0 6 0 12 1
H 1 6 0 12 -1
H 2 6 0 13 1
H 3 6 0 13 -1
H 4 6 0 14 1
H 5 6 0 14 -1
H 6 6 0 15 1
H 7 6 0 15 -1
H 0 7 0 12 -1
H 1 7 0 12 1
H 2 7 0 13 -1
H 3 7 0 13 1
H 4 7 0 14 -1
H 5 7 0 14 1
H 6 7 0 15 -1
H 7 7 0 15 1
