36
 
H 0 0 0 0
H 1 0 0 0
H 2 0 0 1
H 3 0 0 1
H 4 0 0 2
H 5 0 0 2
H 0 1 0 0
H 1 1 0 0
H 2 1 0 1
H 3 1 0 1
H 4 1 0 2
H 5 1 0 2
H 0 2 0 3
H 1 2 0 3
H 2 2 0 4
H 3 2 0 4
H 4 2 0 5
H 5 2 0 5
H 0 3 0 3
H 1 3 0 3
H 2 3 0 4
H 3 3 0 4
H 4 3 0 5
H 5 3 0 5
H 0 4 0 6
H 1 4 0 6
H 2 4 0 7
H 3 4 0 7
H 4 4 0 8
H 5 4 0 8
H 0 5 0 6
H 1 5 0 6
H 2 5 0 7
H 3 5 0 7
H 4 5 0 8
H 5 5 0 8
