32
6.0  0.0  0.0  0.0  6.0  0.0  0.0  0.0 1.0
B 0.0 0.0 0.0 0 1
N 1.0 0.0 0.0 0 -1
N 0.0 1.0 0.0 0 -1
B 1.0 1.0 0.0 0 1
B 0.0 2.0 0.0 1 1
N 1.0 2.0 0.0 1 -1
N 0.0 3.0 0.0 1 -1
B 1.0 3.0 0.0 1 1
B 0.0 4.0 0.0 2 1
N 1.0 4.0 0.0 2 -1
N 0.0 5.0 0.0 2 -1
B 1.0 5.0 0.0 2 1
B 2.0 0.0 0.0 3 1
N 3.0 0.0 0.0 3 -1
N 2.0 1.0 0.0 3 -1
B 3.0 1.0 0.0 3 1
B 2.0 4.0 0.0 4 1
N 3.0 4.0 0.0 4 -1
N 2.0 5.0 0.0 4 -1
B 3.0 5.0 0.0 4 1
B 4.0 0.0 0.0 5 1
N 5.0 0.0 0.0 5 -1
N 4.0 1.0 0.0 5 -1
B 5.0 1.0 0.0 5 1
B 4.0 2.0 0.0 6 1
N 5.0 2.0 0.0 6 -1
N 4.0 3.0 0.0 6 -1
B 5.0 3.0 0.0 6 1
B 4.0 4.0 0.0 7 1
N 5.0 4.0 0.0 7 -1
N 4.0 5.0 0.0 7 -1
B 5.0 5.0 0.0 7 1
